OPT_V8/Brussels_test_1203-1157/powerflow_results_t9.txt
Pandapower Network Debug Info
==================================================

BUS:
       vm_pu  va_degree          p_mw    q_mvar
0   0.995872   0.302563 -3.711208e-05  0.001111
1   0.993281   0.493193 -8.433602e-06  0.002223
2   0.990903   0.668746  0.000000e+00  0.003334
3   0.993538   0.474425  0.000000e+00  0.004445
4   0.993411   0.488384 -1.740275e-05  0.005556
5   0.995366   0.365203 -2.843962e-04  0.006668
6   0.994607   0.421196  0.000000e+00  0.001111
7   0.998438   0.081487  4.155454e-04  0.002223
8   0.998719   0.097003 -1.684230e-04  0.003334
9   0.999945   0.004033 -9.671764e-07  0.011113
10  0.999939   0.004473 -6.476691e-08  0.010001
11  0.999934   0.004816  0.000000e+00  0.012224
12  0.999891   0.008001 -3.866270e-04  0.006668
13  0.999877   0.008928 -5.887969e-08  0.011113
14  0.999882   0.008617  4.879402e-04  0.013335
15  0.999965   0.002556  0.000000e+00  0.000000
16  0.999965   0.002562  0.000000e+00  0.000000
17  0.999892   0.007863  0.000000e+00  0.000000
18  0.999892   0.007874  0.000000e+00  0.000000
19  1.000000   0.000000 -7.730111e-05 -0.049531
20  1.000000   0.000007  0.000000e+00  0.000000
21  1.000000   0.000000 -1.777950e-04 -0.055093
22  1.000000   0.000008  0.000000e+00  0.000000
--------------------------------------------------

LINE:
       p_from_mw  q_from_mvar       p_to_mw  q_to_mvar         pl_mw       ql_mvar  i_from_ka   i_to_ka      i_ka  vm_from_pu  va_from_degree  vm_to_pu  va_to_degree  loading_percent
0   6.729540e-05     0.045531 -6.526764e-05  -0.045530  2.027756e-06  1.581074e-06   0.001752  0.001752  0.001752    1.000000        0.000007  0.999965      0.002556         0.761955
1   1.677880e-04     0.051093 -1.607661e-04  -0.051087  7.021951e-06  5.475131e-06   0.001967  0.001967  0.001967    1.000000        0.000008  0.999892      0.007863         0.855035
2   7.151728e-08     0.033339  7.880138e-07  -0.033338  8.595310e-07  6.701905e-07   0.001283  0.001283  0.001283    0.999965        0.002556  0.999945      0.004033         0.557933
3  -3.866116e-04     0.006668  3.866270e-04  -0.006668  1.542896e-08  1.203021e-08   0.000257  0.000257  0.000257    0.999892        0.007863  0.999891      0.008001         0.111779
4   4.882687e-04     0.024448 -4.879417e-04  -0.024448  3.270199e-07  2.549828e-07   0.000941  0.000941  0.000941    0.999892        0.007863  0.999882      0.008617         0.409257
5   5.519720e-05     0.011191  3.386056e-06  -0.011145  5.858326e-05  4.567833e-05   0.016154  0.016154  0.016154    0.999965        0.002562  0.995872      0.302563         7.023362
6  -2.358547e-04     0.007817  2.833104e-04  -0.007780  4.745570e-05  3.700199e-05   0.011289  0.011289  0.011289    0.999892        0.007874  0.995366      0.365203         4.908129
7   4.190101e-04     0.002225 -4.155454e-04  -0.002223  3.464682e-06  2.701470e-06   0.003269  0.003269  0.003269    0.999892        0.007874  0.998438      0.081487         1.421138
8  -1.340468e-04     0.008930  1.477653e-04  -0.008920  1.371848e-05  1.069652e-05   0.012893  0.012893  0.012893    0.999892        0.007874  0.998719      0.097003         5.605562
9  -8.320032e-09    -0.022225  1.791628e-07   0.022225  1.708427e-07  1.332089e-07   0.000855  0.000855  0.000855    0.999939        0.004473  0.999945      0.004033         0.371956
10 -2.544143e-14    -0.012224  7.308679e-08   0.012224  7.308676e-08  5.698695e-08   0.000471  0.000471  0.000471    0.999934        0.004816  0.999939      0.004473         0.204576
11  1.529979e-09     0.011113  5.887919e-08  -0.011113  6.040917e-08  4.710202e-08   0.000428  0.000428  0.000428    0.999882        0.008617  0.999877      0.008928         0.185989
12 -1.804129e-06    -0.005564  2.037004e-05   0.005579  1.856591e-05  1.447614e-05   0.008086  0.008086  0.008086    0.993281        0.493193  0.995872      0.302563         3.515494
13 -1.351695e-09    -0.004445  1.336575e-05   0.004455  1.336440e-05  1.042044e-05   0.006458  0.006458  0.006458    0.993538        0.474425  0.995872      0.302563         2.807635
14 -2.577965e-09    -0.003334  1.024163e-05   0.003342  1.023905e-05  7.983554e-06   0.004856  0.004856  0.004856    0.990903        0.668746  0.993281      0.493193         2.111322
15  2.066044e-05     0.005586  1.740376e-05  -0.005556  3.806421e-05  2.967929e-05   0.008073  0.008073  0.008073    0.998719        0.097003  0.993411      0.488384         3.510012
16 -2.868778e-10    -0.001111  1.087099e-06   0.001112  1.086812e-06  8.474053e-07   0.001613  0.001613  0.001613    0.994607        0.421196  0.995366      0.365203         0.701155
--------------------------------------------------

TRAFO:
    p_hv_mw  q_hv_mvar   p_lv_mw  q_lv_mvar    pl_mw  ql_mvar   i_hv_ka   i_lv_ka  vm_hv_pu  va_hv_degree  vm_lv_pu  va_lv_degree  loading_percent
0  0.000065   0.012191 -0.000055  -0.011191  0.00001    0.001  0.000469  0.016154  0.999965      0.002556  0.999965      0.002562         0.121916
1  0.000059   0.019972 -0.000049  -0.018972  0.00001    0.001  0.000769  0.027387  0.999892      0.007863  0.999892      0.007874         0.199742
2  0.000077   0.049531 -0.000067  -0.045531  0.00001    0.004  0.000409  0.001752  1.000000      0.000000  1.000000      0.000007         0.123828
3  0.000178   0.055093 -0.000168  -0.051093  0.00001    0.004  0.000454  0.001967  1.000000      0.000000  1.000000      0.000008         0.137733
--------------------------------------------------
